@<TRIPOS>MOLECULE
02
     2     1     1     0     0
SMALL
NO_CHARGES
****
Generated from the CSD

@<TRIPOS>ATOM
     1 C2       0.8929   1.6325  12.5218   C.1       1 RES1   0.0000
     2 N2       1.9656   1.4185  12.1962   N.1       1 RES1   0.0000
@<TRIPOS>BOND
     1     2     1    3
@<TRIPOS>SUBSTRUCTURE
     1 RES1        1 GROUP             0 ****  ****    0  
