@<TRIPOS>MOLECULE
01
     3     2     1     0     0
SMALL
NO_CHARGES
****
Generated from the CSD

@<TRIPOS>ATOM
     1 S1      44.6385  -1.4652   9.0772   S.2       1 RES1   0.0000
     2 N1      43.2902  -3.7223  10.4096   N.pl3     1 RES1   0.0000
     3 C1      43.7976  -2.7324   9.8072   C.2       1 RES1   0.0000
@<TRIPOS>BOND
     1     1     3    2
     2     2     3    2
@<TRIPOS>SUBSTRUCTURE
     1 RES1        1 GROUP             0 ****  ****    0  
