@<TRIPOS>MOLECULE
02
     5     4     1     0     0
SMALL
NO_CHARGES
****
Generated from the CSD

@<TRIPOS>ATOM
     1 Cl1      0.0000   8.5491  -0.1906   Cl        1 RES1   0.0000
     2 O4       0.0000   8.7137  -1.3982   O.2       1 RES1   0.0000
     3 O5      -1.1012   7.8891   0.2021   O.3       1 RES1   0.0000
     4 O6       0.0000   9.6566   0.3593   O.2       1 RES1   0.0000
     5 O9       1.1012   7.8891   0.2021   O.3       1 RES1   0.0000
@<TRIPOS>BOND
     1     1     2    2
     2     4     1    2
     3     1     3    1
     4     1     5    1
@<TRIPOS>SUBSTRUCTURE
     1 RES1        1 GROUP             0 ****  ****    0  
