@<TRIPOS>MOLECULE
07
     4     3     1     0     0
SMALL
NO_CHARGES
****
Generated from the CSD

@<TRIPOS>ATOM
     1 N4      12.0998  12.3350  -0.3438   N.3       1 RES1   0.0000
     2 O11     12.9775  13.1864  -0.4541   O.3       1 RES1   0.0000
     3 O16     10.8738  12.6382  -0.2683   O.3       1 RES1   0.0000
     4 O21     12.3779  11.0981  -0.3206   O.3       1 RES1   0.0000
@<TRIPOS>BOND
     1     1     2    1
     2     1     3    1
     3     1     4    1
@<TRIPOS>SUBSTRUCTURE
     1 RES1        1 GROUP             0 ****  ****    0  
