@<TRIPOS>MOLECULE
01
     5     4     1     0     0
SMALL
NO_CHARGES
****
Generated from the CSD

@<TRIPOS>ATOM
     1 S1       9.5694   4.6445  -0.5210   S.o2      1 RES1   0.0000
     2 O1       8.2166   4.0221  -0.5176   O.3       1 RES1   0.0000
     3 O2      10.5455   3.5436  -0.4124   O.3       1 RES1   0.0000
     4 O3       9.6094   5.4225   0.7484   O.3       1 RES1   0.0000
     5 O4       9.8361   5.4208  -1.6664   O.3       1 RES1   0.0000
@<TRIPOS>BOND
     1     1     2    1
     2     3     1    1
     3     1     4    1
     4     1     5    1
@<TRIPOS>SUBSTRUCTURE
     1 RES1        1 GROUP             0 ****  ****    0  
