@<TRIPOS>MOLECULE
01
     3     2     1     0     0
SMALL
NO_CHARGES
****
Generated from the CSD

@<TRIPOS>ATOM
     1 S1       5.0242   9.9133   8.2171   S.2       1 RES1   0.0000
     2 N1       5.4946  11.3532  10.4954   N.1       1 RES1   0.0000
     3 C1       5.3000  10.7645   9.5302   C.1       1 RES1   0.0000
@<TRIPOS>BOND
     1     1     3    1
     2     2     3    3
@<TRIPOS>SUBSTRUCTURE
     1 RES1        1 GROUP             0 ****  ****    0  
