@<TRIPOS>MOLECULE
01
     3     2     1     0     0
SMALL
NO_CHARGES
****
Generated from the CSD

@<TRIPOS>ATOM
     1 O1      10.3094   7.3309   7.1246   O.2       1 RES1   0.0000
     2 O2      10.7153   5.8005   5.6949   O.2       1 RES1   0.0000
     3 N3       9.9896   6.2801   6.5634   N.1       1 RES1   0.0000
@<TRIPOS>BOND
     1     1     3    2
     2     2     3    2
@<TRIPOS>SUBSTRUCTURE
     1 RES1        1 GROUP             0 ****  ****    0  
