@<TRIPOS>MOLECULE
02
     3     2     1     0     0
SMALL
NO_CHARGES
****
Generated from the CSD

@<TRIPOS>ATOM
     1 S1       1.1679   2.8410  15.8739   S.2       1 RES1   0.0000
     2 O7       0.9400   3.9637  15.0193   O.2       1 RES1   0.0000
     3 O8       2.5438   2.5086  16.1131   O.2       1 RES1   0.0000
@<TRIPOS>BOND
     1     1     2    2
     2     1     3    2
@<TRIPOS>SUBSTRUCTURE
     1 RES1        1 GROUP             0 ****  ****    0  
