@<TRIPOS>MOLECULE
02
     7     6     1     0     0
SMALL
NO_CHARGES
****
Generated from the CSD

@<TRIPOS>ATOM
     1 B6       2.1952  12.0626   1.0239   B         1 RES1   0.0000
     2 O7       3.1557  12.8847   1.4994   O.3       1 RES1   0.0000
     3 O11      1.1661  12.7659   0.5004   O.3       1 RES1   0.0000
     4 O12      2.2623  10.7110   1.0899   O.3       1 RES1   0.0000
     5 H1       3.8737  12.5892   1.9321   H         1 RES1   0.0000
     6 H3       0.5360  12.3196   0.1099   H         1 RES1   0.0000
     7 H4       1.6323  10.3700   0.8504   H         1 RES1   0.0000
@<TRIPOS>BOND
     1     1     2    1
     2     4     1    1
     3     5     2    1
     4     6     3    1
     5     7     4    1
     6     1     3    1
@<TRIPOS>SUBSTRUCTURE
     1 RES1        1 GROUP             0 ****  ****    0  
